
#======================================================================
# CRYSTAL DATA
#----------------------------------------------------------------------
data_VESTA_phase_1

_chemical_name_common                  ''
_cell_length_a                         15.678800
_cell_length_b                         15.678800
_cell_length_c                         13.613100
_cell_angle_alpha                      90.000000
_cell_angle_beta                       90.000000
_cell_angle_gamma                      90.000000
_cell_volume                           3346.437023
_space_group_name_H-M_alt              'Custom'
_space_group_IT_number                 1

loop_
_space_group_symop_operation_xyz
   'x, y, z'
   '-x, -y, -z'
   '-x, -y, z'
   'y, -x, z'
   '-y, x, z'
   '-y, x, -z'
   'y, -x, -z'
   'x, y, -z'
   'y, x, z+1/2'
   'x, -y, -z+1/2'
   '-x, y, -z+1/2'
   '-y, -x, z+1/2'
   '-x, y, z+1/2'
   'x, -y, z+1/2'
   'y, x, -z+1/2'
   '-y, -x, -z+1/2'
   'x+1/2, y+1/2, z'
   '-x+1/2, -y+1/2, -z'
   '-x+1/2, -y+1/2, z'
   'y+1/2, -x+1/2, z'
   '-y+1/2, x+1/2, z'
   '-y+1/2, x+1/2, -z'
   'y+1/2, -x+1/2, -z'
   'x+1/2, y+1/2, -z'
   'y+1/2, x+1/2, z+1/2'
   'x+1/2, -y+1/2, -z+1/2'
   '-x+1/2, y+1/2, -z+1/2'
   '-y+1/2, -x+1/2, z+1/2'
   '-x+1/2, y+1/2, z+1/2'
   'x+1/2, -y+1/2, z+1/2'
   'y+1/2, x+1/2, -z+1/2'
   '-y+1/2, -x+1/2, -z+1/2'
   'x, y+1/2, z'
   '-x, -y+1/2, -z'
   '-x, -y+1/2, z'
   'y+1/2, -x, z'
   '-y+1/2, x, z'
   '-y+1/2, x, -z'
   'y+1/2, -x, -z'
   'x, y+1/2, -z'
   'y+1/2, x, z+1/2'
   'x, -y+1/2, -z+1/2'
   '-x, y+1/2, -z+1/2'
   '-y+1/2, -x, z+1/2'
   '-x, y+1/2, z+1/2'
   'x, -y+1/2, z+1/2'
   'y+1/2, x, -z+1/2'
   '-y+1/2, -x, -z+1/2'
   'x+1/2, y, z'
   '-x+1/2, -y, -z'
   '-x+1/2, -y, z'
   'y, -x+1/2, z'
   '-y, x+1/2, z'
   '-y, x+1/2, -z'
   'y, -x+1/2, -z'
   'x+1/2, y, -z'
   'y, x+1/2, z+1/2'
   'x+1/2, -y, -z+1/2'
   '-x+1/2, y, -z+1/2'
   '-y, -x+1/2, z+1/2'
   '-x+1/2, y, z+1/2'
   'x+1/2, -y, z+1/2'
   'y, x+1/2, -z+1/2'
   '-y, -x+1/2, -z+1/2'

loop_
   _atom_site_label
   _atom_site_occupancy
   _atom_site_fract_x
   _atom_site_fract_y
   _atom_site_fract_z
   _atom_site_adp_type
   _atom_site_U_iso_or_equiv
   _atom_site_type_symbol
   Ba1_1      1.0     0.000000     0.000000     0.250000    Uiso  0.003800 Ba
   Ba1_2      1.0     0.250000     0.250000     0.750000    Uiso  0.003800 Ba
   Nd1        1.0     0.079150     0.329150     0.000000    Uiso  0.003800 Nd
   Zn1        1.0     0.000000     0.250000     0.250000    Uiso  0.003800 Zn
   S1_1       1.0     0.000000     0.000000     0.000000    Uiso  0.003800 S
   S1_2       1.0     0.250000     0.250000     0.500000    Uiso  0.003800 S
   S2         1.0     0.075000     0.325000     0.625000    Uiso  0.003800 S
